cff-version: 1.2.0
message: "If you use or modify the model setup or scripts consider citing this repository"
authors:
- family-names: "Cortese"
  given-names: "Luca"
  orcid: "https://orcid.org/0000-0003-1318-477X"
title: "Lake Seminole Delft3D-FM model"
version: 1.0.0
url: "https://github.com/cortesel/LakeSeminole_d3dfm"
